# File generated by Flopy version 3.5.0.dev0 on 10/26/2023 at 10:52:00.
BEGIN griddata
  strt
    CONSTANT       0.00000000
END griddata

