# File generated by Flopy version 3.5.0.dev0 on 10/27/2023 at 12:42:51.
BEGIN options
  SAVE_FLOWS
  NEWTON
END options

BEGIN packages
  DISV6  disv_with_uzf.nc  disv
  IC6  disv_with_uzf.ic  ic
  NPF6  disv_with_uzf.nc  npf
  STO6  disv_with_uzf.sto  sto
  GHB6  disv_with_uzf.nc  ghb_0
  UZF6  disv_with_uzf.uzf  uzf_0
  OC6  disv_with_uzf.oc  oc
  OBS6  disv_with_uzf.obs  head_obs
END packages

