# File generated by Flopy version 3.5.0.dev0 on 10/19/2023 at 08:05:06.
BEGIN griddata
  strt
    CONSTANT      20.00000000
END griddata

