# File generated by Flopy version 3.5.0.dev0 on 10/19/2023 at 14:36:15.
BEGIN griddata
  strt
    CONSTANT      20.00000000
END griddata

