# File generated by Flopy version 3.5.0.dev0 on 10/26/2023 at 08:47:10.
BEGIN griddata
  strt
    CONSTANT      20.00000000
END griddata

