# File generated by Flopy version 3.5.0.dev0 on 10/26/2023 at 08:47:10.
BEGIN options
  TIME_UNITS  days
END options

BEGIN dimensions
  NPER  5
END dimensions

BEGIN perioddata
      10.00000000  5       1.00000000
      10.00000000  5       1.00000000
      10.00000000  5       1.00000000
      10.00000000  5       1.00000000
      10.00000000  5       1.00000000
END perioddata

