# File generated by Flopy version 3.5.0.dev0 on 10/30/2023 at 09:20:40.
BEGIN options
  PRINT_INPUT
END options

BEGIN dimensions
  MAXBOUND  10
END dimensions

BEGIN period  1
  3 1 15 -4.00000000E+01
  3 2 15 -4.00000000E+01
  3 3 15 -4.00000000E+01
  3 4 15 -4.00000000E+01
  3 5 15 -4.00000000E+01
  3 6 15 -4.00000000E+01
  3 7 15 -4.00000000E+01
  3 8 15 -4.00000000E+01
  3 9 15 -4.00000000E+01
  3 10 15 -4.00000000E+01
END period  1

