# File generated by Flopy version 3.5.0.dev0 on 10/27/2023 at 12:58:29.
BEGIN options
  SAVE_SPECIFIC_DISCHARGE
END options

BEGIN griddata
  icelltype
    CONSTANT  0
  k
    CONSTANT       1.00000000
  k33
    CONSTANT       1.00000000
END griddata

