# File generated by Flopy version 3.5.0.dev0 on 10/26/2023 at 10:51:59.
BEGIN options
  SAVE_FLOWS
END options

BEGIN packages
  DIS6  leftmodel.dis  dis
  IC6  leftmodel.ic  ic
  NPF6  leftmodel.npf  npf
  CHD6  leftmodel.chd  chd_0
  OC6  leftmodel.oc  oc
END packages

