# File generated by Flopy version 3.5.0.dev0 on 10/26/2023 at 10:51:59.
BEGIN options
END options

BEGIN dimensions
  MAXBOUND  1
END dimensions

BEGIN period  1
  1 1 1 1.00000000E+00
END period  1

