# File generated by Flopy version 3.5.0.dev0 on 10/30/2023 at 09:15:33.
BEGIN options
END options

BEGIN dimensions
  MAXBOUND  1
END dimensions

BEGIN period  1
  1 1 1 1.00000000E+00
END period  1

