# File generated by Flopy version 3.5.0.dev0 on 10/27/2023 at 12:52:11.
BEGIN options
END options

BEGIN dimensions
  MAXBOUND  1
END dimensions

BEGIN period  1
  1 1 1 1.00000000E+00
END period  1

