# File generated by Flopy version 3.5.0.dev0 on 10/26/2023 at 10:51:59.
BEGIN options
  TIME_UNITS  days
END options

BEGIN dimensions
  NPER  1
END dimensions

BEGIN perioddata
       1.00000000  1       1.00000000
END perioddata

