# File generated by Flopy version 3.5.0.dev0 on 10/26/2023 at 10:51:59.
BEGIN griddata
  strt
    CONSTANT       0.00000000
END griddata

