# File generated by Flopy version 3.5.0.dev0 on 10/26/2023 at 10:51:59.
BEGIN options
  SAVE_FLOWS
END options

BEGIN packages
  DIS6  rightmodel.dis  dis
  IC6  rightmodel.ic  ic
  NPF6  rightmodel.npf  npf
  CHD6  rightmodel.chd  chd_0
  OC6  rightmodel.oc  oc
END packages

