# File generated by Flopy version 3.5.0.dev0 on 10/30/2023 at 09:15:35.
BEGIN options
END options

BEGIN dimensions
  MAXBOUND  5
END dimensions

BEGIN period  1
  1 1 1 1.00000000E+00
  1 2 1 1.00000000E+00
  1 3 1 1.00000000E+00
  1 4 1 1.00000000E+00
  1 5 1 1.00000000E+00
END period  1

