# File generated by Flopy version 3.5.0.dev0 on 10/26/2023 at 10:52:00.
BEGIN options
  BUDGET  FILEOUT  leftmodel.cbc
  HEAD  FILEOUT  leftmodel.hds
  HEAD  PRINT_FORMAT  COLUMNS  10  WIDTH  15  DIGITS  6  GENERAL
END options

BEGIN period  1
  SAVE  HEAD  LAST
  SAVE  BUDGET  LAST
END period  1

