# File generated by Flopy version 3.5.0.dev0 on 10/27/2023 at 12:52:12.
BEGIN options
END options

BEGIN dimensions
  MAXBOUND  5
END dimensions

BEGIN period  1
  1 1 5 1.00000000E+01
  1 2 5 1.00000000E+01
  1 3 5 1.00000000E+01
  1 4 5 1.00000000E+01
  1 5 5 1.00000000E+01
END period  1

