# File generated by Flopy version 3.5.0.dev0 on 10/17/2023 at 11:14:07.
BEGIN options
END options

BEGIN griddata
  icelltype
    CONSTANT  1
  k
    CONSTANT       1.00000000
  k33
    CONSTANT       1.00000000
END griddata

