# File generated by Flopy version 3.5.0.dev0 on 10/26/2023 at 08:57:04.
BEGIN options
  auxiliary  CONCENTRATION
  PRINT_INPUT
  PRINT_FLOWS
END options

BEGIN dimensions
  MAXBOUND  1
END dimensions

BEGIN period  1
  1 1 1 -2.50000000E+01 0.00000000E+00
END period  1

BEGIN period  2
  1 1 1 2.50000000E+01 0.00000000E+00
END period  2

