# File generated by Flopy version 3.5.0.dev0 on 10/26/2023 at 08:57:04.
BEGIN options
END options

BEGIN sources
  WEL-1  AUX  CONCENTRATION
END sources

