# File generated by Flopy version 3.5.0.dev0 on 10/17/2023 at 11:14:07.
BEGIN options
END options

BEGIN griddata
  porosity
    CONSTANT       0.10000000
END griddata

