# File generated by Flopy version 3.5.0.dev0 on 10/17/2023 at 11:14:07.
BEGIN options
  SCHEME  upstream
END options

