# File generated by Flopy version 3.5.0.dev0 on 10/27/2023 at 12:50:17.
BEGIN options
  SCHEME  upstream
END options

