# File generated by Flopy version 3.5.0.dev0 on 10/26/2023 at 08:52:16.
BEGIN griddata
  strt
    CONSTANT     100.00000000
END griddata

