# File generated by Flopy version 3.5.0.dev0 on 10/27/2023 at 12:46:54.
BEGIN options
  BUDGET  FILEOUT  rch.cbc
  HEAD  FILEOUT  rch.hds
  HEAD  PRINT_FORMAT  COLUMNS  10  WIDTH  15  DIGITS  6  GENERAL
END options

BEGIN period  1
  SAVE  HEAD  ALL
  SAVE  BUDGET  ALL
  PRINT  HEAD  ALL
  PRINT  BUDGET  ALL
END period  1

