# File generated by Flopy version 3.5.0.dev0 on 10/30/2023 at 09:20:40.
BEGIN options
END options

BEGIN timing
  TDIS6  npf02_hrewetd.tdis
END timing

BEGIN models
  gwf6  gwf0.nam  gwf0
  gwf6  gwf1.nam  gwf1
END models

BEGIN exchanges
  GWF6-GWF6  npf02_hrewetd.gwfgwf  gwf0  gwf1
END exchanges

BEGIN solutiongroup  1
  ims6  npf02_hrewetd.ims  gwf0  gwf1
END solutiongroup  1

