# File generated by Flopy version 3.5.0.dev0 on 10/30/2023 at 09:20:40.
BEGIN options
  PRINT_INPUT
END options

BEGIN dimensions
  MAXBOUND  10
END dimensions

BEGIN period  1
  3 1 5 -4.00000000E+01
  3 2 5 -4.00000000E+01
  3 3 5 -4.00000000E+01
  3 4 5 -4.00000000E+01
  3 5 5 -4.00000000E+01
  3 6 5 -4.00000000E+01
  3 7 5 -4.00000000E+01
  3 8 5 -4.00000000E+01
  3 9 5 -4.00000000E+01
  3 10 5 -4.00000000E+01
END period  1

