# File generated by Flopy version 3.5.0.dev0 on 10/30/2023 at 09:20:40.
BEGIN options
END options

BEGIN packages
  DIS6  gwf1.dis  dis
  IC6  gwf1.ic  ic
  NPF6  gwf1.npf  npf
  CHD6  gwf1.chd2.chd  chd2
  OC6  gwf1.oc  oc
END packages

