# File generated by Flopy version 3.5.0.dev0 on 10/17/2023 at 14:01:35.
BEGIN options
END options

BEGIN timing
  TDIS6  rch.tdis
END timing

BEGIN models
  gwf6  rch.nam  rch
END models

BEGIN exchanges
END exchanges

BEGIN solutiongroup  1
  ims6  rch.ims  rch
END solutiongroup  1

