# File generated by Flopy version 3.5.0.dev0 on 10/27/2023 at 12:46:54.
BEGIN options
  SAVE_FLOWS
END options

BEGIN griddata
  icelltype
    CONSTANT  0
  k
    CONSTANT       1.00000000
END griddata

