# File generated by Flopy version 3.5.0.dev0 on 10/26/2023 at 08:54:48.
BEGIN options
END options

BEGIN timing
  TDIS6  uzf_3lay_wc_chk.tdis
END timing

BEGIN models
  gwf6  uzf_3lay_wc_chk.nam  uzf_3lay_wc_chk
END models

BEGIN exchanges
END exchanges

BEGIN solutiongroup  1
  ims6  uzf_3lay_wc_chk.ims  uzf_3lay_wc_chk
END solutiongroup  1

