# File generated by Flopy version 3.5.0.dev0 on 10/27/2023 at 12:48:39.
BEGIN options
  SAVE_FLOWS
END options

BEGIN griddata
  icelltype
    CONSTANT  1
  k
    CONSTANT     100.00000000
  k33
    CONSTANT      10.00000000
END griddata

