# File generated by Flopy version 3.5.0.dev0 on 10/30/2023 at 09:12:37.
BEGIN options
  PRINT_FLOWS
END options

BEGIN dimensions
  MAXBOUND  3
END dimensions

BEGIN period  1
  3 1 1 -2.55000000E+01 1.00000000E+03
  3 1 10 -2.55000000E+01 1.00000000E+03
END period  1

BEGIN period  4
  3 1 1 -1.05000000E+01 1.00000000E+03
  3 1 10 -1.05000000E+01 1.00000000E+03
END period  4

