# File generated by Flopy version 3.5.0.dev0 on 10/30/2023 at 09:12:37.
BEGIN griddata
  strt
    CONSTANT     -25.00000000
END griddata

