# File generated by Flopy version 3.5.0.dev0 on 10/26/2023 at 08:54:48.
BEGIN options
  PRINT_OPTION  summary
  COMPLEXITY  moderate
END options

BEGIN nonlinear
  OUTER_DVCLOSE  1.00000000E-09
  OUTER_MAXIMUM  100
  UNDER_RELAXATION  dbd
END nonlinear

BEGIN linear
  INNER_MAXIMUM  300
  INNER_DVCLOSE  1.00000000E-09
  inner_rclose       0.00100000
  LINEAR_ACCELERATION  bicgstab
  RELAXATION_FACTOR       0.97000000
  SCALING_METHOD  none
  REORDERING_METHOD  none
END linear

