# File generated by Flopy version 3.5.0.dev0 on 10/26/2023 at 08:54:48.
BEGIN options
END options

BEGIN dimensions
  NLAY  3
  NROW  1
  NCOL  10
END dimensions

BEGIN griddata
  delr
    CONSTANT       1.00000000
  delc
    CONSTANT       1.00000000
  top
    CONSTANT       0.00000000
  botm  LAYERED
    CONSTANT      -5.00000000
    CONSTANT     -20.00000000
    CONSTANT     -30.00000000
END griddata

