# File generated by Flopy version 3.5.0.dev0 on 10/19/2023 at 07:53:48.
BEGIN griddata
  strt
    CONSTANT     -25.00000000
END griddata

