# File generated by Flopy version 3.5.0.dev0 on 10/18/2023 at 21:01:05.
BEGIN options
  TIME_UNITS  days
END options

BEGIN dimensions
  NPER  31
END dimensions

BEGIN perioddata
       1.00000000  1       1.00000000
     365.25000000  6       1.30000000
     365.25000000  6       1.30000000
     365.25000000  6       1.30000000
     365.25000000  6       1.30000000
     365.25000000  6       1.30000000
     365.25000000  6       1.30000000
     365.25000000  6       1.30000000
     365.25000000  6       1.30000000
     365.25000000  6       1.30000000
     365.25000000  6       1.30000000
     365.25000000  6       1.30000000
     365.25000000  6       1.30000000
     365.25000000  6       1.30000000
     365.25000000  6       1.30000000
     365.25000000  6       1.30000000
     365.25000000  6       1.30000000
     365.25000000  6       1.30000000
     365.25000000  6       1.30000000
     365.25000000  6       1.30000000
     365.25000000  6       1.30000000
     365.25000000  6       1.30000000
     365.25000000  6       1.30000000
     365.25000000  6       1.30000000
     365.25000000  6       1.30000000
     365.25000000  6       1.30000000
     365.25000000  6       1.30000000
     365.25000000  6       1.30000000
     365.25000000  6       1.30000000
     365.25000000  6       1.30000000
     365.25000000  6       1.30000000
END perioddata

