# File generated by Flopy version 3.5.0.dev0 on 10/26/2023 at 08:54:49.
BEGIN griddata
  strt
    CONSTANT     -25.00000000
END griddata

