# File generated by Flopy version 3.5.0.dev0 on 10/27/2023 at 12:48:39.
BEGIN options
  TIME_UNITS  days
END options

BEGIN dimensions
  NPER  6
END dimensions

BEGIN perioddata
      10.00000000  10       1.00000000
      10.00000000  1       1.00000000
      10.00000000  1       1.00000000
      10.00000000  1       1.00000000
      10.00000000  1       1.00000000
      10.00000000  1       1.00000000
END perioddata

