# File generated by Flopy version 3.5.0.dev0 on 10/26/2023 at 08:54:49.
BEGIN options
  SAVE_FLOWS
  NEWTON
END options

BEGIN packages
  DIS6  uzf_3lay_wc_chk.nc  dis
  IC6  uzf_3lay_wc_chk.ic  ic
  NPF6  uzf_3lay_wc_chk.nc  npf
  STO6  uzf_3lay_wc_chk.sto  sto
  GHB6  uzf_3lay_wc_chk.nc  ghb_0
  UZF6  uzf_3lay_wc_chk.uzf  uzf_0
  OC6  uzf_3lay_wc_chk.oc  oc
END packages

