# File generated by Flopy version 3.5.0.dev0 on 10/19/2023 at 07:53:48.
BEGIN options
  BUDGET  FILEOUT  uzf_3lay_wc_chk.cbc
  HEAD  FILEOUT  uzf_3lay_wc_chk.hds
  HEAD  PRINT_FORMAT  COLUMNS  10  WIDTH  15  DIGITS  6  GENERAL
END options

BEGIN period  1
  SAVE  HEAD  ALL
  SAVE  BUDGET  ALL
  PRINT  HEAD  ALL
  PRINT  BUDGET  ALL
END period  1

