# File generated by Flopy version 3.5.0.dev0 on 10/30/2023 at 09:12:37.
BEGIN options
END options

BEGIN continuous  FILEOUT  uzf_3lay_wc_chk.uzfobs
  uzf01_dpth=0.5  water-content  uzf01  0.5
  uzf01_dpth=1.5  water-content  uzf01  1.5
  uzf01_dpth=2.5  water-content  uzf01  2.5
  uzf01_dpth=3.5  water-content  uzf01  3.5
  uzf01_dpth=4.49  water-content  uzf01  4.49
  uzf09_dpth=7.5  water-content  uzf09  7.5
  uzf17_dpth=1.0  water-content  uzf17  1.0
END continuous  FILEOUT  uzf_3lay_wc_chk.uzfobs

