# File generated by Flopy version 3.5.0.dev0 on 10/27/2023 at 12:48:39.
BEGIN options
  BOUNDNAMES
  PRINT_FLOWS
  SAVE_FLOWS
  WATER_CONTENT  FILEOUT  uzf_3lay_wc_chk.uzfwc.bin
  BUDGET  FILEOUT  uzf_3lay_wc_chk.uzf.bud
  OBS6  FILEIN  uzf_3lay_wc_chk.uzf.obs
  SIMULATE_ET
  LINEAR_GWET
  SIMULATE_GWSEEP
END options

BEGIN dimensions
  NUZFCELLS  24
  NTRAILWAVES  25
  NWAVESETS  80
END dimensions

BEGIN packagedata
  1  1 1 2  1  9       1.00000000       0.50000000       0.05000000       0.35000000       0.06000000       4.00000000  uzf01
  2  1 1 3  1  10       1.00000000       0.50000000       0.05000000       0.35000000       0.06000000       4.00000000  uzf02
  3  1 1 4  1  11       1.00000000       0.50000000       0.05000000       0.35000000       0.06000000       4.00000000  uzf03
  4  1 1 5  1  12       1.00000000       0.50000000       0.05000000       0.35000000       0.06000000       4.00000000  uzf04
  5  1 1 6  1  13       1.00000000       0.50000000       0.05000000       0.35000000       0.06000000       4.00000000  uzf05
  6  1 1 7  1  14       1.00000000       0.50000000       0.05000000       0.35000000       0.06000000       4.00000000  uzf06
  7  1 1 8  1  15       1.00000000       0.50000000       0.05000000       0.35000000       0.06000000       4.00000000  uzf07
  8  1 1 9  1  16       1.00000000       0.50000000       0.05000000       0.35000000       0.06000000       4.00000000  uzf08
  9  2 1 2  0  17       0.00100000       0.50000000       0.05000000       0.35000000       0.06000000       4.00000000  uzf09
  10  2 1 3  0  18       0.00100000       0.50000000       0.05000000       0.35000000       0.06000000       4.00000000  uzf10
  11  2 1 4  0  19       0.00100000       0.50000000       0.05000000       0.35000000       0.06000000       4.00000000  uzf11
  12  2 1 5  0  20       0.00100000       0.50000000       0.05000000       0.35000000       0.06000000       4.00000000  uzf12
  13  2 1 6  0  21       0.00100000       0.50000000       0.05000000       0.35000000       0.06000000       4.00000000  uzf13
  14  2 1 7  0  22       0.00100000       0.50000000       0.05000000       0.35000000       0.06000000       4.00000000  uzf14
  15  2 1 8  0  23       0.00100000       0.50000000       0.05000000       0.35000000       0.06000000       4.00000000  uzf15
  16  2 1 9  0  24       0.00100000       0.50000000       0.05000000       0.35000000       0.06000000       4.00000000  uzf16
  17  3 1 2  0  0       0.00100000       0.50000000       0.05000000       0.35000000       0.06000000       4.00000000  uzf17
  18  3 1 3  0  0       0.00100000       0.50000000       0.05000000       0.35000000       0.06000000       4.00000000  uzf18
  19  3 1 4  0  0       0.00100000       0.50000000       0.05000000       0.35000000       0.06000000       4.00000000  uzf19
  20  3 1 5  0  0       0.00100000       0.50000000       0.05000000       0.35000000       0.06000000       4.00000000  uzf20
  21  3 1 6  0  0       0.00100000       0.50000000       0.05000000       0.35000000       0.06000000       4.00000000  uzf21
  22  3 1 7  0  0       0.00100000       0.50000000       0.05000000       0.35000000       0.06000000       4.00000000  uzf22
  23  3 1 8  0  0       0.00100000       0.50000000       0.05000000       0.35000000       0.06000000       4.00000000  uzf23
  24  3 1 9  0  0       0.00100000       0.50000000       0.05000000       0.35000000       0.06000000       4.00000000  uzf24
END packagedata

BEGIN period  1
  1  0.125  0.0  3.0  0.05  0.0  0.0  0.0
  2  0.125  0.0  3.0  0.05  0.0  0.0  0.0
  3  0.125  0.0  3.0  0.05  0.0  0.0  0.0
  4  0.125  0.0  3.0  0.05  0.0  0.0  0.0
  5  0.125  0.0  3.0  0.05  0.0  0.0  0.0
  6  0.125  0.0  3.0  0.05  0.0  0.0  0.0
  7  0.125  0.0  3.0  0.05  0.0  0.0  0.0
  8  0.125  0.0  3.0  0.05  0.0  0.0  0.0
  9  0.0  0.0  0.0  0.05  0.0  0.0  0.0
  10  0.0  0.0  0.0  0.05  0.0  0.0  0.0
  11  0.0  0.0  0.0  0.05  0.0  0.0  0.0
  12  0.0  0.0  0.0  0.05  0.0  0.0  0.0
  13  0.0  0.0  0.0  0.05  0.0  0.0  0.0
  14  0.0  0.0  0.0  0.05  0.0  0.0  0.0
  15  0.0  0.0  0.0  0.05  0.0  0.0  0.0
  16  0.0  0.0  0.0  0.05  0.0  0.0  0.0
END period  1

BEGIN period  2
  1  0.001  0.001  3.0  0.05  0.0  0.0  0.0
  2  0.001  0.001  3.0  0.05  0.0  0.0  0.0
  3  0.001  0.001  3.0  0.05  0.0  0.0  0.0
  4  0.001  0.001  3.0  0.05  0.0  0.0  0.0
  5  0.001  0.001  3.0  0.05  0.0  0.0  0.0
  6  0.001  0.001  3.0  0.05  0.0  0.0  0.0
  7  0.001  0.001  3.0  0.05  0.0  0.0  0.0
  8  0.001  0.001  3.0  0.05  0.0  0.0  0.0
  9  0.0  0.0  0.0  0.05  0.0  0.0  0.0
  10  0.0  0.0  0.0  0.05  0.0  0.0  0.0
  11  0.0  0.0  0.0  0.05  0.0  0.0  0.0
  12  0.0  0.0  0.0  0.05  0.0  0.0  0.0
  13  0.0  0.0  0.0  0.05  0.0  0.0  0.0
  14  0.0  0.0  0.0  0.05  0.0  0.0  0.0
  15  0.0  0.0  0.0  0.05  0.0  0.0  0.0
  16  0.0  0.0  0.0  0.05  0.0  0.0  0.0
END period  2

BEGIN period  3
  1  0.05  0.001  3.0  0.05  0.0  0.0  0.0
  2  0.05  0.001  3.0  0.05  0.0  0.0  0.0
  3  0.05  0.001  3.0  0.05  0.0  0.0  0.0
  4  0.05  0.001  3.0  0.05  0.0  0.0  0.0
  5  0.05  0.001  3.0  0.05  0.0  0.0  0.0
  6  0.05  0.001  3.0  0.05  0.0  0.0  0.0
  7  0.05  0.001  3.0  0.05  0.0  0.0  0.0
  8  0.05  0.001  3.0  0.05  0.0  0.0  0.0
  9  0.0  0.0  0.0  0.05  0.0  0.0  0.0
  10  0.0  0.0  0.0  0.05  0.0  0.0  0.0
  11  0.0  0.0  0.0  0.05  0.0  0.0  0.0
  12  0.0  0.0  0.0  0.05  0.0  0.0  0.0
  13  0.0  0.0  0.0  0.05  0.0  0.0  0.0
  14  0.0  0.0  0.0  0.05  0.0  0.0  0.0
  15  0.0  0.0  0.0  0.05  0.0  0.0  0.0
  16  0.0  0.0  0.0  0.05  0.0  0.0  0.0
END period  3

BEGIN period  4
  1  0.01  0.001  3.0  0.05  0.0  0.0  0.0
  2  0.01  0.001  3.0  0.05  0.0  0.0  0.0
  3  0.01  0.001  3.0  0.05  0.0  0.0  0.0
  4  0.01  0.001  3.0  0.05  0.0  0.0  0.0
  5  0.01  0.001  3.0  0.05  0.0  0.0  0.0
  6  0.01  0.001  3.0  0.05  0.0  0.0  0.0
  7  0.01  0.001  3.0  0.05  0.0  0.0  0.0
  8  0.01  0.001  3.0  0.05  0.0  0.0  0.0
  9  0.0  0.0  0.0  0.05  0.0  0.0  0.0
  10  0.0  0.0  0.0  0.05  0.0  0.0  0.0
  11  0.0  0.0  0.0  0.05  0.0  0.0  0.0
  12  0.0  0.0  0.0  0.05  0.0  0.0  0.0
  13  0.0  0.0  0.0  0.05  0.0  0.0  0.0
  14  0.0  0.0  0.0  0.05  0.0  0.0  0.0
  15  0.0  0.0  0.0  0.05  0.0  0.0  0.0
  16  0.0  0.0  0.0  0.05  0.0  0.0  0.0
END period  4

BEGIN period  5
  1  0.001  0.011  3.0  0.05  0.0  0.0  0.0
  2  0.001  0.011  3.0  0.05  0.0  0.0  0.0
  3  0.001  0.011  3.0  0.05  0.0  0.0  0.0
  4  0.001  0.011  3.0  0.05  0.0  0.0  0.0
  5  0.001  0.011  3.0  0.05  0.0  0.0  0.0
  6  0.001  0.011  3.0  0.05  0.0  0.0  0.0
  7  0.001  0.011  3.0  0.05  0.0  0.0  0.0
  8  0.001  0.011  3.0  0.05  0.0  0.0  0.0
  9  0.0  0.0  0.0  0.05  0.0  0.0  0.0
  10  0.0  0.0  0.0  0.05  0.0  0.0  0.0
  11  0.0  0.0  0.0  0.05  0.0  0.0  0.0
  12  0.0  0.0  0.0  0.05  0.0  0.0  0.0
  13  0.0  0.0  0.0  0.05  0.0  0.0  0.0
  14  0.0  0.0  0.0  0.05  0.0  0.0  0.0
  15  0.0  0.0  0.0  0.05  0.0  0.0  0.0
  16  0.0  0.0  0.0  0.05  0.0  0.0  0.0
END period  5

BEGIN period  6
  1  0.001  0.011  3.0  0.05  0.0  0.0  0.0
  2  0.001  0.011  3.0  0.05  0.0  0.0  0.0
  3  0.001  0.011  3.0  0.05  0.0  0.0  0.0
  4  0.001  0.011  3.0  0.05  0.0  0.0  0.0
  5  0.001  0.011  3.0  0.05  0.0  0.0  0.0
  6  0.001  0.011  3.0  0.05  0.0  0.0  0.0
  7  0.001  0.011  3.0  0.05  0.0  0.0  0.0
  8  0.001  0.011  3.0  0.05  0.0  0.0  0.0
  9  0.0  0.0  0.0  0.05  0.0  0.0  0.0
  10  0.0  0.0  0.0  0.05  0.0  0.0  0.0
  11  0.0  0.0  0.0  0.05  0.0  0.0  0.0
  12  0.0  0.0  0.0  0.05  0.0  0.0  0.0
  13  0.0  0.0  0.0  0.05  0.0  0.0  0.0
  14  0.0  0.0  0.0  0.05  0.0  0.0  0.0
  15  0.0  0.0  0.0  0.05  0.0  0.0  0.0
  16  0.0  0.0  0.0  0.05  0.0  0.0  0.0
END period  6

