# File generated by Flopy version 3.5.0.dev0 on 10/27/2023 at 12:35:56.
BEGIN griddata
  strt
    CONSTANT       0.00000000
END griddata

