# File generated by Flopy version 3.5.0.dev0 on 10/27/2023 at 12:35:56.
BEGIN options
END options

BEGIN packages
  DIS6  csub_sub03b.dis  dis
  IC6  csub_sub03b.ic  ic
  NPF6  csub_sub03b.npf  npf
  STO6  csub_sub03b.sto  sto
  RCH6  csub_sub03b.rcha  rcha_0
  WEL6  csub_sub03b.wel  wel_0
  CHD6  csub_sub03b.chd  chd_0
  CSUB6  csub_sub03b.csub  csub
  OC6  csub_sub03b.oc  oc
END packages

