# File generated by Flopy version 3.5.0.dev0 on 10/27/2023 at 12:35:56.
BEGIN options
  BOUNDNAMES
  PRINT_INPUT
  SAVE_FLOWS
  GAMMAW    9806.65000000
  BETA       0.00000000
  HEAD_BASED
  NDELAYCELLS  39
  SPECIFIED_INITIAL_INTERBED_STATE
  EFFECTIVE_STRESS_LAG
  STRAIN_CSV_INTERBED  FILEOUT  csub_sub03b.ib.strain.csv
  STRAIN_CSV_COARSE  FILEOUT  csub_sub03b.sk.strain.csv
  COMPACTION  FILEOUT  csub_sub03b.compaction.gridbin
  OBS6  FILEIN  csub_sub03b.csub.obs
END options

BEGIN dimensions
  NINTERBEDS  492
END dimensions

BEGIN griddata
  cg_ske_cr  LAYERED
    CONSTANT  3.00000000E-06
    CONSTANT       0.00000000
    CONSTANT  3.00000000E-06
  cg_theta
    CONSTANT       0.20000000
END griddata

BEGIN packagedata
  1  1 1 1  nodelay      -7.00000000      15.00000000       1.00000000  6.00000000E-04  6.00000000E-06       0.45054945     999.00000000    -999.00000000  01_01_01
  2  1 1 2  nodelay      -7.00000000      15.00000000       1.00000000  6.00000000E-04  6.00000000E-06       0.45054945     999.00000000    -999.00000000  01_01_02
  3  1 1 3  nodelay      -7.00000000      15.00000000       1.00000000  6.00000000E-04  6.00000000E-06       0.45054945     999.00000000    -999.00000000  01_01_03
  4  1 1 4  nodelay      -7.00000000      15.00000000       1.00000000  6.00000000E-04  6.00000000E-06       0.45054945     999.00000000    -999.00000000  01_01_04
  5  1 1 5  nodelay      -7.00000000      15.00000000       1.00000000  6.00000000E-04  6.00000000E-06       0.45054945     999.00000000    -999.00000000  01_01_05
  6  1 1 6  nodelay      -7.00000000      15.00000000       1.00000000  6.00000000E-04  6.00000000E-06       0.45054945     999.00000000    -999.00000000  01_01_06
  7  1 1 7  nodelay      -7.00000000      15.00000000       1.00000000  6.00000000E-04  6.00000000E-06       0.45054945     999.00000000    -999.00000000  01_01_07
  8  1 1 8  nodelay      -7.00000000      15.00000000       1.00000000  6.00000000E-04  6.00000000E-06       0.45054945     999.00000000    -999.00000000  01_01_08
  9  1 1 9  nodelay      -7.00000000      15.00000000       1.00000000  6.00000000E-04  6.00000000E-06       0.45054945     999.00000000    -999.00000000  01_01_09
  10  1 1 10  nodelay      -7.00000000      15.00000000       1.00000000  6.00000000E-04  6.00000000E-06       0.45054945     999.00000000    -999.00000000  01_01_10
  11  1 2 1  nodelay      -7.00000000      15.00000000       1.00000000  6.00000000E-04  6.00000000E-06       0.45054945     999.00000000    -999.00000000  01_02_01
  12  1 2 2  nodelay      -7.00000000      15.00000000       1.00000000  6.00000000E-04  6.00000000E-06       0.45054945     999.00000000    -999.00000000  01_02_02
  13  1 2 3  nodelay      -7.00000000      15.00000000       1.00000000  6.00000000E-04  6.00000000E-06       0.45054945     999.00000000    -999.00000000  01_02_03
  14  1 2 4  nodelay      -7.00000000      15.00000000       1.00000000  6.00000000E-04  6.00000000E-06       0.45054945     999.00000000    -999.00000000  01_02_04
  15  1 2 5  nodelay      -7.00000000      15.00000000       1.00000000  6.00000000E-04  6.00000000E-06       0.45054945     999.00000000    -999.00000000  01_02_05
  16  1 2 6  nodelay      -7.00000000      15.00000000       1.00000000  6.00000000E-04  6.00000000E-06       0.45054945     999.00000000    -999.00000000  01_02_06
  17  1 2 7  nodelay      -7.00000000      15.00000000       1.00000000  6.00000000E-04  6.00000000E-06       0.45054945     999.00000000    -999.00000000  01_02_07
  18  1 2 8  nodelay      -7.00000000      15.00000000       1.00000000  6.00000000E-04  6.00000000E-06       0.45054945     999.00000000    -999.00000000  01_02_08
  19  1 2 9  nodelay      -7.00000000      15.00000000       1.00000000  6.00000000E-04  6.00000000E-06       0.45054945     999.00000000    -999.00000000  01_02_09
  20  1 2 10  nodelay      -7.00000000      15.00000000       1.00000000  6.00000000E-04  6.00000000E-06       0.45054945     999.00000000    -999.00000000  01_02_10
  21  1 3 1  nodelay      -7.00000000      15.00000000       1.00000000  6.00000000E-04  6.00000000E-06       0.45054945     999.00000000    -999.00000000  01_03_01
  22  1 3 2  nodelay      -7.00000000      15.00000000       1.00000000  6.00000000E-04  6.00000000E-06       0.45054945     999.00000000    -999.00000000  01_03_02
  23  1 3 3  nodelay      -7.00000000      15.00000000       1.00000000  6.00000000E-04  6.00000000E-06       0.45054945     999.00000000    -999.00000000  01_03_03
  24  1 3 4  nodelay      -7.00000000      15.00000000       1.00000000  6.00000000E-04  6.00000000E-06       0.45054945     999.00000000    -999.00000000  01_03_04
  25  1 3 5  nodelay      -7.00000000      15.00000000       1.00000000  6.00000000E-04  6.00000000E-06       0.45054945     999.00000000    -999.00000000  01_03_05
  26  1 3 6  nodelay      -7.00000000      15.00000000       1.00000000  6.00000000E-04  6.00000000E-06       0.45054945     999.00000000    -999.00000000  01_03_06
  27  1 3 7  nodelay      -7.00000000      15.00000000       1.00000000  6.00000000E-04  6.00000000E-06       0.45054945     999.00000000    -999.00000000  01_03_07
  28  1 3 8  nodelay      -7.00000000      15.00000000       1.00000000  6.00000000E-04  6.00000000E-06       0.45054945     999.00000000    -999.00000000  01_03_08
  29  1 3 9  nodelay      -7.00000000      15.00000000       1.00000000  6.00000000E-04  6.00000000E-06       0.45054945     999.00000000    -999.00000000  01_03_09
  30  1 3 10  nodelay      -7.00000000      15.00000000       1.00000000  6.00000000E-04  6.00000000E-06       0.45054945     999.00000000    -999.00000000  01_03_10
  31  1 4 1  nodelay      -7.00000000      15.00000000       1.00000000  6.00000000E-04  6.00000000E-06       0.45054945     999.00000000    -999.00000000  01_04_01
  32  1 4 2  nodelay      -7.00000000      15.00000000       1.00000000  6.00000000E-04  6.00000000E-06       0.45054945     999.00000000    -999.00000000  01_04_02
  33  1 4 3  nodelay      -7.00000000      15.00000000       1.00000000  6.00000000E-04  6.00000000E-06       0.45054945     999.00000000    -999.00000000  01_04_03
  34  1 4 4  nodelay      -7.00000000      15.00000000       1.00000000  6.00000000E-04  6.00000000E-06       0.45054945     999.00000000    -999.00000000  01_04_04
  35  1 4 5  nodelay      -7.00000000      15.00000000       1.00000000  6.00000000E-04  6.00000000E-06       0.45054945     999.00000000    -999.00000000  01_04_05
  36  1 4 6  nodelay      -7.00000000      15.00000000       1.00000000  6.00000000E-04  6.00000000E-06       0.45054945     999.00000000    -999.00000000  01_04_06
  37  1 4 7  nodelay      -7.00000000      15.00000000       1.00000000  6.00000000E-04  6.00000000E-06       0.45054945     999.00000000    -999.00000000  01_04_07
  38  1 4 8  nodelay      -7.00000000      15.00000000       1.00000000  6.00000000E-04  6.00000000E-06       0.45054945     999.00000000    -999.00000000  01_04_08
  39  1 4 9  nodelay      -7.00000000      15.00000000       1.00000000  6.00000000E-04  6.00000000E-06       0.45054945     999.00000000    -999.00000000  01_04_09
  40  1 4 10  nodelay      -7.00000000      15.00000000       1.00000000  6.00000000E-04  6.00000000E-06       0.45054945     999.00000000    -999.00000000  01_04_10
  41  1 5 1  nodelay      -7.00000000      15.00000000       1.00000000  6.00000000E-04  6.00000000E-06       0.45054945     999.00000000    -999.00000000  01_05_01
  42  1 5 2  nodelay      -7.00000000      15.00000000       1.00000000  6.00000000E-04  6.00000000E-06       0.45054945     999.00000000    -999.00000000  01_05_02
  43  1 5 3  nodelay      -7.00000000      15.00000000       1.00000000  6.00000000E-04  6.00000000E-06       0.45054945     999.00000000    -999.00000000  01_05_03
  44  1 5 4  nodelay      -7.00000000      15.00000000       1.00000000  6.00000000E-04  6.00000000E-06       0.45054945     999.00000000    -999.00000000  01_05_04
  45  1 5 5  nodelay      -7.00000000      15.00000000       1.00000000  6.00000000E-04  6.00000000E-06       0.45054945     999.00000000    -999.00000000  01_05_05
  46  1 5 6  nodelay      -7.00000000      15.00000000       1.00000000  6.00000000E-04  6.00000000E-06       0.45054945     999.00000000    -999.00000000  01_05_06
  47  1 5 7  nodelay      -7.00000000      15.00000000       1.00000000  6.00000000E-04  6.00000000E-06       0.45054945     999.00000000    -999.00000000  01_05_07
  48  1 5 8  nodelay      -7.00000000      15.00000000       1.00000000  6.00000000E-04  6.00000000E-06       0.45054945     999.00000000    -999.00000000  01_05_08
  49  1 5 9  nodelay      -7.00000000      15.00000000       1.00000000  6.00000000E-04  6.00000000E-06       0.45054945     999.00000000    -999.00000000  01_05_09
  50  1 5 10  nodelay      -7.00000000      15.00000000       1.00000000  6.00000000E-04  6.00000000E-06       0.45054945     999.00000000    -999.00000000  01_05_10
  51  1 6 1  nodelay      -7.00000000      15.00000000       1.00000000  6.00000000E-04  6.00000000E-06       0.45054945     999.00000000    -999.00000000  01_06_01
  52  1 6 2  nodelay      -7.00000000      15.00000000       1.00000000  6.00000000E-04  6.00000000E-06       0.45054945     999.00000000    -999.00000000  01_06_02
  53  1 6 3  nodelay      -7.00000000      15.00000000       1.00000000  6.00000000E-04  6.00000000E-06       0.45054945     999.00000000    -999.00000000  01_06_03
  54  1 6 4  nodelay      -7.00000000      15.00000000       1.00000000  6.00000000E-04  6.00000000E-06       0.45054945     999.00000000    -999.00000000  01_06_04
  55  1 6 5  nodelay      -7.00000000      15.00000000       1.00000000  6.00000000E-04  6.00000000E-06       0.45054945     999.00000000    -999.00000000  01_06_05
  56  1 6 6  nodelay      -7.00000000      15.00000000       1.00000000  6.00000000E-04  6.00000000E-06       0.45054945     999.00000000    -999.00000000  01_06_06
  57  1 6 7  nodelay      -7.00000000      15.00000000       1.00000000  6.00000000E-04  6.00000000E-06       0.45054945     999.00000000    -999.00000000  01_06_07
  58  1 6 8  nodelay      -7.00000000      15.00000000       1.00000000  6.00000000E-04  6.00000000E-06       0.45054945     999.00000000    -999.00000000  01_06_08
  59  1 6 9  nodelay      -7.00000000      15.00000000       1.00000000  6.00000000E-04  6.00000000E-06       0.45054945     999.00000000    -999.00000000  01_06_09
  60  1 6 10  nodelay      -7.00000000      15.00000000       1.00000000  6.00000000E-04  6.00000000E-06       0.45054945     999.00000000    -999.00000000  01_06_10
  61  1 7 1  nodelay      -7.00000000      15.00000000       1.00000000  6.00000000E-04  6.00000000E-06       0.45054945     999.00000000    -999.00000000  01_07_01
  62  1 7 2  nodelay      -7.00000000      15.00000000       1.00000000  6.00000000E-04  6.00000000E-06       0.45054945     999.00000000    -999.00000000  01_07_02
  63  1 7 3  nodelay      -7.00000000      15.00000000       1.00000000  6.00000000E-04  6.00000000E-06       0.45054945     999.00000000    -999.00000000  01_07_03
  64  1 7 4  nodelay      -7.00000000      15.00000000       1.00000000  6.00000000E-04  6.00000000E-06       0.45054945     999.00000000    -999.00000000  01_07_04
  65  1 7 5  nodelay      -7.00000000      15.00000000       1.00000000  6.00000000E-04  6.00000000E-06       0.45054945     999.00000000    -999.00000000  01_07_05
  66  1 7 6  nodelay      -7.00000000      15.00000000       1.00000000  6.00000000E-04  6.00000000E-06       0.45054945     999.00000000    -999.00000000  01_07_06
  67  1 7 7  nodelay      -7.00000000      15.00000000       1.00000000  6.00000000E-04  6.00000000E-06       0.45054945     999.00000000    -999.00000000  01_07_07
  68  1 7 8  nodelay      -7.00000000      15.00000000       1.00000000  6.00000000E-04  6.00000000E-06       0.45054945     999.00000000    -999.00000000  01_07_08
  69  1 7 9  nodelay      -7.00000000      15.00000000       1.00000000  6.00000000E-04  6.00000000E-06       0.45054945     999.00000000    -999.00000000  01_07_09
  70  1 7 10  nodelay      -7.00000000      15.00000000       1.00000000  6.00000000E-04  6.00000000E-06       0.45054945     999.00000000    -999.00000000  01_07_10
  71  1 8 1  nodelay      -7.00000000      15.00000000       1.00000000  6.00000000E-04  6.00000000E-06       0.45054945     999.00000000    -999.00000000  01_08_01
  72  1 8 2  nodelay      -7.00000000      15.00000000       1.00000000  6.00000000E-04  6.00000000E-06       0.45054945     999.00000000    -999.00000000  01_08_02
  73  1 8 3  nodelay      -7.00000000      15.00000000       1.00000000  6.00000000E-04  6.00000000E-06       0.45054945     999.00000000    -999.00000000  01_08_03
  74  1 8 4  nodelay      -7.00000000      15.00000000       1.00000000  6.00000000E-04  6.00000000E-06       0.45054945     999.00000000    -999.00000000  01_08_04
  75  1 8 5  nodelay      -7.00000000      15.00000000       1.00000000  6.00000000E-04  6.00000000E-06       0.45054945     999.00000000    -999.00000000  01_08_05
  76  1 8 6  nodelay      -7.00000000      15.00000000       1.00000000  6.00000000E-04  6.00000000E-06       0.45054945     999.00000000    -999.00000000  01_08_06
  77  1 8 7  nodelay      -7.00000000      15.00000000       1.00000000  6.00000000E-04  6.00000000E-06       0.45054945     999.00000000    -999.00000000  01_08_07
  78  1 8 8  nodelay      -7.00000000      15.00000000       1.00000000  6.00000000E-04  6.00000000E-06       0.45054945     999.00000000    -999.00000000  01_08_08
  79  1 8 9  nodelay      -7.00000000      15.00000000       1.00000000  6.00000000E-04  6.00000000E-06       0.45054945     999.00000000    -999.00000000  01_08_09
  80  1 8 10  nodelay      -7.00000000      15.00000000       1.00000000  6.00000000E-04  6.00000000E-06       0.45054945     999.00000000    -999.00000000  01_08_10
  81  1 9 1  nodelay      -7.00000000      15.00000000       1.00000000  6.00000000E-04  6.00000000E-06       0.45054945     999.00000000    -999.00000000  01_09_01
  82  1 9 2  nodelay      -7.00000000      15.00000000       1.00000000  6.00000000E-04  6.00000000E-06       0.45054945     999.00000000    -999.00000000  01_09_02
  83  1 9 3  nodelay      -7.00000000      15.00000000       1.00000000  6.00000000E-04  6.00000000E-06       0.45054945     999.00000000    -999.00000000  01_09_03
  84  1 9 4  nodelay      -7.00000000      15.00000000       1.00000000  6.00000000E-04  6.00000000E-06       0.45054945     999.00000000    -999.00000000  01_09_04
  85  1 9 5  nodelay      -7.00000000      15.00000000       1.00000000  6.00000000E-04  6.00000000E-06       0.45054945     999.00000000    -999.00000000  01_09_05
  86  1 9 6  nodelay      -7.00000000      15.00000000       1.00000000  6.00000000E-04  6.00000000E-06       0.45054945     999.00000000    -999.00000000  01_09_06
  87  1 9 7  nodelay      -7.00000000      15.00000000       1.00000000  6.00000000E-04  6.00000000E-06       0.45054945     999.00000000    -999.00000000  01_09_07
  88  1 9 8  nodelay      -7.00000000      15.00000000       1.00000000  6.00000000E-04  6.00000000E-06       0.45054945     999.00000000    -999.00000000  01_09_08
  89  1 9 9  nodelay      -7.00000000      15.00000000       1.00000000  6.00000000E-04  6.00000000E-06       0.45054945     999.00000000    -999.00000000  01_09_09
  90  1 9 10  nodelay      -7.00000000      15.00000000       1.00000000  6.00000000E-04  6.00000000E-06       0.45054945     999.00000000    -999.00000000  01_09_10
  91  1 10 1  nodelay      -7.00000000      15.00000000       1.00000000  6.00000000E-04  6.00000000E-06       0.45054945     999.00000000    -999.00000000  01_10_01
  92  1 10 2  nodelay      -7.00000000      15.00000000       1.00000000  6.00000000E-04  6.00000000E-06       0.45054945     999.00000000    -999.00000000  01_10_02
  93  1 10 3  nodelay      -7.00000000      15.00000000       1.00000000  6.00000000E-04  6.00000000E-06       0.45054945     999.00000000    -999.00000000  01_10_03
  94  1 10 8  nodelay      -7.00000000      15.00000000       1.00000000  6.00000000E-04  6.00000000E-06       0.45054945     999.00000000    -999.00000000  01_10_08
  95  1 10 9  nodelay      -7.00000000      15.00000000       1.00000000  6.00000000E-04  6.00000000E-06       0.45054945     999.00000000    -999.00000000  01_10_09
  96  1 10 10  nodelay      -7.00000000      15.00000000       1.00000000  6.00000000E-04  6.00000000E-06       0.45054945     999.00000000    -999.00000000  01_10_10
  97  2 1 1  nodelay      -7.00000000      50.00000000       1.00000000  3.00000000E-04  3.00000000E-06       0.45054945     999.00000000    -999.00000000  02_01_01
  98  2 1 2  nodelay      -7.00000000      50.00000000       1.00000000  3.00000000E-04  3.00000000E-06       0.45054945     999.00000000    -999.00000000  02_01_02
  99  2 1 3  nodelay      -7.00000000      50.00000000       1.00000000  3.00000000E-04  3.00000000E-06       0.45054945     999.00000000    -999.00000000  02_01_03
  100  2 1 4  nodelay      -7.00000000      50.00000000       1.00000000  3.00000000E-04  3.00000000E-06       0.45054945     999.00000000    -999.00000000  02_01_04
  101  2 1 5  nodelay      -7.00000000      50.00000000       1.00000000  3.00000000E-04  3.00000000E-06       0.45054945     999.00000000    -999.00000000  02_01_05
  102  2 1 6  nodelay      -7.00000000      50.00000000       1.00000000  3.00000000E-04  3.00000000E-06       0.45054945     999.00000000    -999.00000000  02_01_06
  103  2 1 7  nodelay      -7.00000000      50.00000000       1.00000000  3.00000000E-04  3.00000000E-06       0.45054945     999.00000000    -999.00000000  02_01_07
  104  2 1 8  nodelay      -7.00000000      50.00000000       1.00000000  3.00000000E-04  3.00000000E-06       0.45054945     999.00000000    -999.00000000  02_01_08
  105  2 1 9  nodelay      -7.00000000      50.00000000       1.00000000  3.00000000E-04  3.00000000E-06       0.45054945     999.00000000    -999.00000000  02_01_09
  106  2 1 10  nodelay      -7.00000000      50.00000000       1.00000000  3.00000000E-04  3.00000000E-06       0.45054945     999.00000000    -999.00000000  02_01_10
  107  2 2 1  nodelay      -7.00000000      50.00000000       1.00000000  3.00000000E-04  3.00000000E-06       0.45054945     999.00000000    -999.00000000  02_02_01
  108  2 2 2  nodelay      -7.00000000      50.00000000       1.00000000  3.00000000E-04  3.00000000E-06       0.45054945     999.00000000    -999.00000000  02_02_02
  109  2 2 3  nodelay      -7.00000000      50.00000000       1.00000000  3.00000000E-04  3.00000000E-06       0.45054945     999.00000000    -999.00000000  02_02_03
  110  2 2 4  nodelay      -7.00000000      50.00000000       1.00000000  3.00000000E-04  3.00000000E-06       0.45054945     999.00000000    -999.00000000  02_02_04
  111  2 2 5  nodelay      -7.00000000      50.00000000       1.00000000  3.00000000E-04  3.00000000E-06       0.45054945     999.00000000    -999.00000000  02_02_05
  112  2 2 6  nodelay      -7.00000000      50.00000000       1.00000000  3.00000000E-04  3.00000000E-06       0.45054945     999.00000000    -999.00000000  02_02_06
  113  2 2 7  nodelay      -7.00000000      50.00000000       1.00000000  3.00000000E-04  3.00000000E-06       0.45054945     999.00000000    -999.00000000  02_02_07
  114  2 2 8  nodelay      -7.00000000      50.00000000       1.00000000  3.00000000E-04  3.00000000E-06       0.45054945     999.00000000    -999.00000000  02_02_08
  115  2 2 9  nodelay      -7.00000000      50.00000000       1.00000000  3.00000000E-04  3.00000000E-06       0.45054945     999.00000000    -999.00000000  02_02_09
  116  2 2 10  nodelay      -7.00000000      50.00000000       1.00000000  3.00000000E-04  3.00000000E-06       0.45054945     999.00000000    -999.00000000  02_02_10
  117  2 3 1  nodelay      -7.00000000      50.00000000       1.00000000  3.00000000E-04  3.00000000E-06       0.45054945     999.00000000    -999.00000000  02_03_01
  118  2 3 2  nodelay      -7.00000000      50.00000000       1.00000000  3.00000000E-04  3.00000000E-06       0.45054945     999.00000000    -999.00000000  02_03_02
  119  2 3 3  nodelay      -7.00000000      50.00000000       1.00000000  3.00000000E-04  3.00000000E-06       0.45054945     999.00000000    -999.00000000  02_03_03
  120  2 3 4  nodelay      -7.00000000      50.00000000       1.00000000  3.00000000E-04  3.00000000E-06       0.45054945     999.00000000    -999.00000000  02_03_04
  121  2 3 5  nodelay      -7.00000000      50.00000000       1.00000000  3.00000000E-04  3.00000000E-06       0.45054945     999.00000000    -999.00000000  02_03_05
  122  2 3 6  nodelay      -7.00000000      50.00000000       1.00000000  3.00000000E-04  3.00000000E-06       0.45054945     999.00000000    -999.00000000  02_03_06
  123  2 3 7  nodelay      -7.00000000      50.00000000       1.00000000  3.00000000E-04  3.00000000E-06       0.45054945     999.00000000    -999.00000000  02_03_07
  124  2 3 8  nodelay      -7.00000000      50.00000000       1.00000000  3.00000000E-04  3.00000000E-06       0.45054945     999.00000000    -999.00000000  02_03_08
  125  2 3 9  nodelay      -7.00000000      50.00000000       1.00000000  3.00000000E-04  3.00000000E-06       0.45054945     999.00000000    -999.00000000  02_03_09
  126  2 3 10  nodelay      -7.00000000      50.00000000       1.00000000  3.00000000E-04  3.00000000E-06       0.45054945     999.00000000    -999.00000000  02_03_10
  127  2 4 1  nodelay      -7.00000000      50.00000000       1.00000000  3.00000000E-04  3.00000000E-06       0.45054945     999.00000000    -999.00000000  02_04_01
  128  2 4 2  nodelay      -7.00000000      50.00000000       1.00000000  3.00000000E-04  3.00000000E-06       0.45054945     999.00000000    -999.00000000  02_04_02
  129  2 4 3  nodelay      -7.00000000      50.00000000       1.00000000  3.00000000E-04  3.00000000E-06       0.45054945     999.00000000    -999.00000000  02_04_03
  130  2 4 4  nodelay      -7.00000000      50.00000000       1.00000000  3.00000000E-04  3.00000000E-06       0.45054945     999.00000000    -999.00000000  02_04_04
  131  2 4 5  nodelay      -7.00000000      50.00000000       1.00000000  3.00000000E-04  3.00000000E-06       0.45054945     999.00000000    -999.00000000  02_04_05
  132  2 4 6  nodelay      -7.00000000      50.00000000       1.00000000  3.00000000E-04  3.00000000E-06       0.45054945     999.00000000    -999.00000000  02_04_06
  133  2 4 7  nodelay      -7.00000000      50.00000000       1.00000000  3.00000000E-04  3.00000000E-06       0.45054945     999.00000000    -999.00000000  02_04_07
  134  2 4 8  nodelay      -7.00000000      50.00000000       1.00000000  3.00000000E-04  3.00000000E-06       0.45054945     999.00000000    -999.00000000  02_04_08
  135  2 4 9  nodelay      -7.00000000      50.00000000       1.00000000  3.00000000E-04  3.00000000E-06       0.45054945     999.00000000    -999.00000000  02_04_09
  136  2 4 10  nodelay      -7.00000000      50.00000000       1.00000000  3.00000000E-04  3.00000000E-06       0.45054945     999.00000000    -999.00000000  02_04_10
  137  2 5 1  nodelay      -7.00000000      50.00000000       1.00000000  3.00000000E-04  3.00000000E-06       0.45054945     999.00000000    -999.00000000  02_05_01
  138  2 5 2  nodelay      -7.00000000      50.00000000       1.00000000  3.00000000E-04  3.00000000E-06       0.45054945     999.00000000    -999.00000000  02_05_02
  139  2 5 3  nodelay      -7.00000000      50.00000000       1.00000000  3.00000000E-04  3.00000000E-06       0.45054945     999.00000000    -999.00000000  02_05_03
  140  2 5 4  nodelay      -7.00000000      50.00000000       1.00000000  3.00000000E-04  3.00000000E-06       0.45054945     999.00000000    -999.00000000  02_05_04
  141  2 5 5  nodelay      -7.00000000      50.00000000       1.00000000  3.00000000E-04  3.00000000E-06       0.45054945     999.00000000    -999.00000000  02_05_05
  142  2 5 6  nodelay      -7.00000000      50.00000000       1.00000000  3.00000000E-04  3.00000000E-06       0.45054945     999.00000000    -999.00000000  02_05_06
  143  2 5 7  nodelay      -7.00000000      50.00000000       1.00000000  3.00000000E-04  3.00000000E-06       0.45054945     999.00000000    -999.00000000  02_05_07
  144  2 5 8  nodelay      -7.00000000      50.00000000       1.00000000  3.00000000E-04  3.00000000E-06       0.45054945     999.00000000    -999.00000000  02_05_08
  145  2 5 9  nodelay      -7.00000000      50.00000000       1.00000000  3.00000000E-04  3.00000000E-06       0.45054945     999.00000000    -999.00000000  02_05_09
  146  2 5 10  nodelay      -7.00000000      50.00000000       1.00000000  3.00000000E-04  3.00000000E-06       0.45054945     999.00000000    -999.00000000  02_05_10
  147  2 6 1  nodelay      -7.00000000      50.00000000       1.00000000  3.00000000E-04  3.00000000E-06       0.45054945     999.00000000    -999.00000000  02_06_01
  148  2 6 2  nodelay      -7.00000000      50.00000000       1.00000000  3.00000000E-04  3.00000000E-06       0.45054945     999.00000000    -999.00000000  02_06_02
  149  2 6 3  nodelay      -7.00000000      50.00000000       1.00000000  3.00000000E-04  3.00000000E-06       0.45054945     999.00000000    -999.00000000  02_06_03
  150  2 6 4  nodelay      -7.00000000      50.00000000       1.00000000  3.00000000E-04  3.00000000E-06       0.45054945     999.00000000    -999.00000000  02_06_04
  151  2 6 5  nodelay      -7.00000000      50.00000000       1.00000000  3.00000000E-04  3.00000000E-06       0.45054945     999.00000000    -999.00000000  02_06_05
  152  2 6 6  nodelay      -7.00000000      50.00000000       1.00000000  3.00000000E-04  3.00000000E-06       0.45054945     999.00000000    -999.00000000  02_06_06
  153  2 6 7  nodelay      -7.00000000      50.00000000       1.00000000  3.00000000E-04  3.00000000E-06       0.45054945     999.00000000    -999.00000000  02_06_07
  154  2 6 8  nodelay      -7.00000000      50.00000000       1.00000000  3.00000000E-04  3.00000000E-06       0.45054945     999.00000000    -999.00000000  02_06_08
  155  2 6 9  nodelay      -7.00000000      50.00000000       1.00000000  3.00000000E-04  3.00000000E-06       0.45054945     999.00000000    -999.00000000  02_06_09
  156  2 6 10  nodelay      -7.00000000      50.00000000       1.00000000  3.00000000E-04  3.00000000E-06       0.45054945     999.00000000    -999.00000000  02_06_10
  157  2 7 1  nodelay      -7.00000000      50.00000000       1.00000000  3.00000000E-04  3.00000000E-06       0.45054945     999.00000000    -999.00000000  02_07_01
  158  2 7 2  nodelay      -7.00000000      50.00000000       1.00000000  3.00000000E-04  3.00000000E-06       0.45054945     999.00000000    -999.00000000  02_07_02
  159  2 7 3  nodelay      -7.00000000      50.00000000       1.00000000  3.00000000E-04  3.00000000E-06       0.45054945     999.00000000    -999.00000000  02_07_03
  160  2 7 4  nodelay      -7.00000000      50.00000000       1.00000000  3.00000000E-04  3.00000000E-06       0.45054945     999.00000000    -999.00000000  02_07_04
  161  2 7 5  nodelay      -7.00000000      50.00000000       1.00000000  3.00000000E-04  3.00000000E-06       0.45054945     999.00000000    -999.00000000  02_07_05
  162  2 7 6  nodelay      -7.00000000      50.00000000       1.00000000  3.00000000E-04  3.00000000E-06       0.45054945     999.00000000    -999.00000000  02_07_06
  163  2 7 7  nodelay      -7.00000000      50.00000000       1.00000000  3.00000000E-04  3.00000000E-06       0.45054945     999.00000000    -999.00000000  02_07_07
  164  2 7 8  nodelay      -7.00000000      50.00000000       1.00000000  3.00000000E-04  3.00000000E-06       0.45054945     999.00000000    -999.00000000  02_07_08
  165  2 7 9  nodelay      -7.00000000      50.00000000       1.00000000  3.00000000E-04  3.00000000E-06       0.45054945     999.00000000    -999.00000000  02_07_09
  166  2 7 10  nodelay      -7.00000000      50.00000000       1.00000000  3.00000000E-04  3.00000000E-06       0.45054945     999.00000000    -999.00000000  02_07_10
  167  2 8 1  nodelay      -7.00000000      50.00000000       1.00000000  3.00000000E-04  3.00000000E-06       0.45054945     999.00000000    -999.00000000  02_08_01
  168  2 8 2  nodelay      -7.00000000      50.00000000       1.00000000  3.00000000E-04  3.00000000E-06       0.45054945     999.00000000    -999.00000000  02_08_02
  169  2 8 3  nodelay      -7.00000000      50.00000000       1.00000000  3.00000000E-04  3.00000000E-06       0.45054945     999.00000000    -999.00000000  02_08_03
  170  2 8 4  nodelay      -7.00000000      50.00000000       1.00000000  3.00000000E-04  3.00000000E-06       0.45054945     999.00000000    -999.00000000  02_08_04
  171  2 8 5  nodelay      -7.00000000      50.00000000       1.00000000  3.00000000E-04  3.00000000E-06       0.45054945     999.00000000    -999.00000000  02_08_05
  172  2 8 6  nodelay      -7.00000000      50.00000000       1.00000000  3.00000000E-04  3.00000000E-06       0.45054945     999.00000000    -999.00000000  02_08_06
  173  2 8 7  nodelay      -7.00000000      50.00000000       1.00000000  3.00000000E-04  3.00000000E-06       0.45054945     999.00000000    -999.00000000  02_08_07
  174  2 8 8  nodelay      -7.00000000      50.00000000       1.00000000  3.00000000E-04  3.00000000E-06       0.45054945     999.00000000    -999.00000000  02_08_08
  175  2 8 9  nodelay      -7.00000000      50.00000000       1.00000000  3.00000000E-04  3.00000000E-06       0.45054945     999.00000000    -999.00000000  02_08_09
  176  2 8 10  nodelay      -7.00000000      50.00000000       1.00000000  3.00000000E-04  3.00000000E-06       0.45054945     999.00000000    -999.00000000  02_08_10