# File generated by Flopy version 3.5.0.dev0 on 10/27/2023 at 12:35:56.
BEGIN options
  BUDGET  FILEOUT  csub_sub03b.cbc
  HEAD  FILEOUT  csub_sub03b.hds
  HEAD  PRINT_FORMAT  COLUMNS  10  WIDTH  15  DIGITS  6  GENERAL
END options

BEGIN period  1
  SAVE  HEAD  LAST
  SAVE  BUDGET  LAST
  PRINT  HEAD  LAST
  PRINT  BUDGET  LAST
END period  1

