# File generated by Flopy version 3.5.0.dev0 on 10/27/2023 at 12:52:12.
BEGIN options
  SAVE_FLOWS
END options

BEGIN packages
  DIS6  leftmodel.nc  dis
  IC6  leftmodel.ic  ic
  NPF6  leftmodel.nc  npf
  CHD6  leftmodel.nc  chd_0
  OC6  leftmodel.oc  oc
END packages

