# File generated by Flopy version 3.5.0.dev0 on 10/26/2023 at 08:50:14.
BEGIN options
  BUDGET  FILEOUT  evt02.cbc
  HEAD  FILEOUT  evt02.hds
  HEAD  PRINT_FORMAT  COLUMNS  10  WIDTH  15  DIGITS  6  GENERAL
END options

BEGIN period  1
  SAVE  HEAD  ALL
  SAVE  BUDGET  ALL
  PRINT  HEAD  ALL
  PRINT  BUDGET  ALL
END period  1

