# File generated by Flopy version 3.5.0.dev0 on 10/27/2023 at 12:52:12.
BEGIN options
  auxiliary  ANGLDEGX  CDIST
END options

BEGIN dimensions
  NEXG  1
END dimensions

BEGIN exchangedata
  1 1 5  1 1 1  1      50.00000000      50.00000000     100.00000000       0.00000000     100.00000000
END exchangedata

