# File generated by Flopy version 3.5.0.dev0 on 10/30/2023 at 09:15:35.
BEGIN options
  SAVE_FLOWS
END options

BEGIN packages
  DIS6  rightmodel.nc  dis
  IC6  rightmodel.ic  ic
  NPF6  rightmodel.nc  npf
  CHD6  rightmodel.nc  chd_0
  OC6  rightmodel.oc  oc
END packages

