# File generated by Flopy version 3.5.0.dev0 on 10/26/2023 at 08:57:04.
BEGIN options
END options

BEGIN dimensions
  NLAY  1
  NROW  1
  NCOL  1
END dimensions

BEGIN griddata
  delr
    CONSTANT      10.00000000
  delc
    CONSTANT      10.00000000
  top
    CONSTANT      10.00000000
  botm
    CONSTANT       0.00000000
  idomain
    CONSTANT  1
END griddata

