# File generated by Flopy version 3.5.0.dev0 on 10/27/2023 at 12:58:30.
BEGIN options
END options

BEGIN timing
  TDIS6  bndname01.tdis
END timing

BEGIN models
  gwf6  gwf_bndname01.nam  gwf_bndname01
END models

BEGIN exchanges
END exchanges

BEGIN solutiongroup  1
  ims6  bndname01.ims  gwf_bndname01
END solutiongroup  1

