# File generated by Flopy version 3.5.0.dev0 on 10/30/2023 at 09:20:40.
BEGIN options
END options

BEGIN dimensions
  NEXG  10
END dimensions

BEGIN exchangedata
  1 1 10  1 1 1  1     250.00000000     250.00000000     500.00000000
  1 2 10  1 2 1  1     250.00000000     250.00000000     500.00000000
  1 3 10  1 3 1  1     250.00000000     250.00000000     500.00000000
  1 4 10  1 4 1  1     250.00000000     250.00000000     500.00000000
  1 5 10  1 5 1  1     250.00000000     250.00000000     500.00000000
  1 6 10  1 6 1  1     250.00000000     250.00000000     500.00000000
  1 7 10  1 7 1  1     250.00000000     250.00000000     500.00000000
  1 8 10  1 8 1  1     250.00000000     250.00000000     500.00000000
  1 9 10  1 9 1  1     250.00000000     250.00000000     500.00000000
  1 10 10  1 10 1  1     250.00000000     250.00000000     500.00000000
END exchangedata

