# File generated by Flopy version 3.5.0.dev0 on 10/18/2023 at 21:00:16.
BEGIN griddata
  strt
    CONSTANT       0.00000000
END griddata

