# File generated by Flopy version 3.5.0.dev0 on 10/18/2023 at 21:00:16.
BEGIN options
END options

BEGIN timing
  TDIS6  csub_sub03b.tdis
END timing

BEGIN models
  gwf6  csub_sub03b.nam  csub_sub03b
END models

BEGIN exchanges
END exchanges

BEGIN solutiongroup  1
  ims6  csub_sub03b.ims  csub_sub03b
END solutiongroup  1

