# File generated by Flopy version 3.5.0.dev0 on 10/27/2023 at 12:52:12.
BEGIN options
END options

BEGIN dimensions
  MAXBOUND  25
END dimensions

BEGIN period  1
  1 1 1 1.00000000E+00
  2 1 1 1.00000000E+00
  3 1 1 1.00000000E+00
  4 1 1 1.00000000E+00
  5 1 1 1.00000000E+00
  1 2 1 1.00000000E+00
  2 2 1 1.00000000E+00
  3 2 1 1.00000000E+00
  4 2 1 1.00000000E+00
  5 2 1 1.00000000E+00
  1 3 1 1.00000000E+00
  2 3 1 1.00000000E+00
  3 3 1 1.00000000E+00
  4 3 1 1.00000000E+00
  5 3 1 1.00000000E+00
  1 4 1 1.00000000E+00
  2 4 1 1.00000000E+00
  3 4 1 1.00000000E+00
  4 4 1 1.00000000E+00
  5 4 1 1.00000000E+00
  1 5 1 1.00000000E+00
  2 5 1 1.00000000E+00
  3 5 1 1.00000000E+00
  4 5 1 1.00000000E+00
  5 5 1 1.00000000E+00
END period  1

