# File generated by Flopy version 3.5.0.dev0 on 10/26/2023 at 10:52:00.
BEGIN options
END options

BEGIN timing
  TDIS6  par_gwf01-3d.tdis
END timing

BEGIN models
  gwf6  leftmodel.nam  leftmodel
  gwf6  rightmodel.nam  rightmodel
END models

BEGIN exchanges
  GWF6-GWF6  par_gwf01-3d.gwfgwf  leftmodel  rightmodel
END exchanges

BEGIN solutiongroup  1
  ims6  par_gwf01-3d.ims  leftmodel  rightmodel
END solutiongroup  1

