# File generated by Flopy version 3.5.0.dev0 on 10/27/2023 at 12:52:12.
BEGIN options
END options

BEGIN dimensions
  MAXBOUND  25
END dimensions

BEGIN period  1
  1 1 5 1.00000000E+01
  2 1 5 1.00000000E+01
  3 1 5 1.00000000E+01
  4 1 5 1.00000000E+01
  5 1 5 1.00000000E+01
  1 2 5 1.00000000E+01
  2 2 5 1.00000000E+01
  3 2 5 1.00000000E+01
  4 2 5 1.00000000E+01
  5 2 5 1.00000000E+01
  1 3 5 1.00000000E+01
  2 3 5 1.00000000E+01
  3 3 5 1.00000000E+01
  4 3 5 1.00000000E+01
  5 3 5 1.00000000E+01
  1 4 5 1.00000000E+01
  2 4 5 1.00000000E+01
  3 4 5 1.00000000E+01
  4 4 5 1.00000000E+01
  5 4 5 1.00000000E+01
  1 5 5 1.00000000E+01
  2 5 5 1.00000000E+01
  3 5 5 1.00000000E+01
  4 5 5 1.00000000E+01
  5 5 5 1.00000000E+01
END period  1

